examples/dssparser/dssfiles/ieee123_dss/ieee123_Power_elem_kVA.txt

CIRCUIT ELEMENT POWER FLOW

(Power Flow into element from indicated Bus)

Power Delivery Elements

  Bus Phase     kW     +j   kvar         kVA         PF

ELEMENT = "Vsource.SOURCE"
150      1     -1459.6 +j   -583.4     1571.9       0.9286
150      2      -960.6 +j   -342.3     1019.8       0.9420
150      3     -1188.4 +j   -399.8     1253.9       0.9478
   TERMINAL TOTAL -3608.6 +j  -1325.4     3844.3       0.9387
150      0         0.0 +j      0.0        0.0       1.0000
150      0         0.0 +j      0.0        0.0       1.0000
150      0         0.0 +j      0.0        0.0       1.0000
   TERMINAL TOTAL     0.0 +j      0.0        0.0       1.0000

ELEMENT = "Transformer.REG1A"
150      1      1459.6 +j    583.4     1571.9       0.9286
150      2       960.6 +j    342.3     1019.8       0.9420
150      3      1188.4 +j    399.8     1253.9       0.9478
150      0         0.0 +j      0.0        0.0       1.0000
   TERMINAL TOTAL  3608.6 +j   1325.4     3844.3       0.9387
150R     1     -1459.6 +j   -583.4     1571.9       0.9286
150R     2      -960.6 +j   -342.3     1019.8       0.9420
150R     3     -1188.4 +j   -399.8     1253.9       0.9478
150R     0         0.0 +j      0.0        0.0       1.0000
   TERMINAL TOTAL -3608.6 +j  -1325.4     3844.3       0.9387

ELEMENT = "Line.L115"
149      1      1459.2 +j    583.0     1571.4       0.9286
149      2       960.4 +j    342.1     1019.5       0.9420
149      3      1188.2 +j    399.5     1253.5       0.9479
   TERMINAL TOTAL  3607.8 +j   1324.6     3843.3       0.9387
1        1     -1447.9 +j   -559.7     1552.4       0.9327
1        2      -960.0 +j   -336.0     1017.1       0.9438
1        3     -1180.6 +j   -388.3     1242.8       0.9499
   TERMINAL TOTAL -3588.5 +j  -1284.0     3811.3       0.9415

ELEMENT = "Line.L1"
1        2        20.0 +j     10.0       22.4       0.8944
   TERMINAL TOTAL    20.0 +j     10.0       22.4       0.8944
2        2       -20.0 +j    -10.0       22.4       0.8944
   TERMINAL TOTAL   -20.0 +j    -10.0       22.4       0.8944

ELEMENT = "Line.L2"
1        3       102.8 +j     51.5      115.0       0.8940
   TERMINAL TOTAL   102.8 +j     51.5      115.0       0.8940
3        3      -102.7 +j    -51.4      114.8       0.8943
   TERMINAL TOTAL  -102.7 +j    -51.4      114.8       0.8943

ELEMENT = "Line.L3"
1        1      1407.9 +j    539.7     1507.8       0.9337
1        2       940.0 +j    326.0      995.0       0.9448
1        3      1077.7 +j    336.8     1129.1       0.9545
   TERMINAL TOTAL  3425.7 +j   1202.5     3630.6       0.9436
7        1     -1399.5 +j   -523.3     1494.1       0.9367
7        2      -939.9 +j   -321.4      993.3       0.9462
7        3     -1073.2 +j   -330.2     1122.8       0.9558
   TERMINAL TOTAL -3412.5 +j  -1174.9     3609.1       0.9455

ELEMENT = "Line.L4"
3        3        40.0 +j     20.0       44.7       0.8944
   TERMINAL TOTAL    40.0 +j     20.0       44.7       0.8944
4        3       -40.0 +j    -20.0       44.7       0.8944
   TERMINAL TOTAL   -40.0 +j    -20.0       44.7       0.8944

ELEMENT = "Line.L5"
3        3        62.7 +j     31.4       70.1       0.8942
   TERMINAL TOTAL    62.7 +j     31.4       70.1       0.8942
5        3       -62.6 +j    -31.3       70.0       0.8944
   TERMINAL TOTAL   -62.6 +j    -31.3       70.0       0.8944

ELEMENT = "Line.L6"
5        3        42.1 +j     21.1       47.1       0.8943
   TERMINAL TOTAL    42.1 +j     21.1       47.1       0.8943
6        3       -42.1 +j    -21.0       47.0       0.8944
   TERMINAL TOTAL   -42.1 +j    -21.0       47.0       0.8944

ELEMENT = "Line.L7"
7        1      1379.4 +j    513.3     1471.9       0.9372
7        2       939.9 +j    321.4      993.3       0.9462
7        3      1073.2 +j    330.2     1122.8       0.9558
   TERMINAL TOTAL  3392.5 +j   1164.9     3586.9       0.9458
8        1     -1374.0 +j   -502.7     1463.1       0.9391
8        2      -939.7 +j   -318.3      992.1       0.9472
8        3     -1070.2 +j   -325.8     1118.7       0.9567
   TERMINAL TOTAL -3383.9 +j  -1146.8     3572.9       0.9471

ELEMENT = "Line.L8"
8        2        20.0 +j     10.0       22.4       0.8944
   TERMINAL TOTAL    20.0 +j     10.0       22.4       0.8944
12       2       -20.0 +j    -10.0       22.4       0.8944
   TERMINAL TOTAL   -20.0 +j    -10.0       22.4       0.8944

ELEMENT = "Line.L9"
8        1       100.9 +j     50.5      112.8       0.8940
   TERMINAL TOTAL   100.9 +j     50.5      112.8       0.8940
9        1      -100.7 +j    -50.4      112.6       0.8942
   TERMINAL TOTAL  -100.7 +j    -50.4      112.6       0.8942

ELEMENT = "Line.L10"
8        1      1273.1 +j    452.2     1351.0       0.9423
8        2       919.7 +j    308.2      970.0       0.9482
8        3      1070.2 +j    325.8     1118.7       0.9567
   TERMINAL TOTAL  3263.0 +j   1086.2     3439.1       0.9488
13       1     -1266.4 +j   -439.0     1340.3       0.9448
13       2      -919.0 +j   -303.8      967.9       0.9495
13       3     -1065.8 +j   -318.7     1112.4       0.9581
   TERMINAL TOTAL -3251.2 +j  -1061.5     3420.1       0.9506

ELEMENT = "Line.L11"
9R       1        60.7 +j     30.4       67.9       0.8941
   TERMINAL TOTAL    60.7 +j     30.4       67.9       0.8941
14       1       -60.6 +j    -30.3       67.8       0.8944
   TERMINAL TOTAL   -60.6 +j    -30.3       67.8       0.8944

ELEMENT = "Line.L12"
13       3       101.2 +j     50.7      113.2       0.8942
   TERMINAL TOTAL   101.2 +j     50.7      113.2       0.8942
34       3      -101.1 +j    -50.6      113.0       0.8943
   TERMINAL TOTAL  -101.1 +j    -50.6      113.0       0.8943

ELEMENT = "Line.L13"
13       1       484.1 +j    263.4      551.2       0.8784
13       2       318.3 +j    215.9      384.6       0.8276
13       3       323.2 +j    188.6      374.2       0.8637
   TERMINAL TOTAL  1125.6 +j    667.9     1308.8       0.8600
18       1      -481.7 +j   -257.5      546.2       0.8819
18       2      -317.9 +j   -213.6      383.0       0.8300
18       3      -321.0 +j   -186.8      371.4       0.8643
   TERMINAL TOTAL -1120.7 +j   -657.9     1299.5       0.8624

ELEMENT = "Line.L14"
14       1        40.5 +j     20.3       45.3       0.8943
   TERMINAL TOTAL    40.5 +j     20.3       45.3       0.8943
11       1       -40.5 +j    -20.2       45.3       0.8944
   TERMINAL TOTAL   -40.5 +j    -20.2       45.3       0.8944

ELEMENT = "Line.L15"
14       1        20.1 +j     10.1       22.5       0.8944
   TERMINAL TOTAL    20.1 +j     10.1       22.5       0.8944
10       1       -20.1 +j    -10.1       22.5       0.8944
   TERMINAL TOTAL   -20.1 +j    -10.1       22.5       0.8944

ELEMENT = "Line.L16"
15       3        40.0 +j     20.0       44.8       0.8943
   TERMINAL TOTAL    40.0 +j     20.0       44.8       0.8943
16       3       -40.0 +j    -20.0       44.7       0.8944
   TERMINAL TOTAL   -40.0 +j    -20.0       44.7       0.8944

ELEMENT = "Line.L17"
15       3        20.0 +j     10.0       22.4       0.8944
   TERMINAL TOTAL    20.0 +j     10.0       22.4       0.8944
17       3       -20.0 +j    -10.0       22.4       0.8944
   TERMINAL TOTAL   -20.0 +j    -10.0       22.4       0.8944

ELEMENT = "Line.L18"
18       1        79.7 +j     39.9       89.2       0.8942
   TERMINAL TOTAL    79.7 +j     39.9       89.2       0.8942
19       1       -79.7 +j    -39.8       89.1       0.8944
   TERMINAL TOTAL   -79.7 +j    -39.8       89.1       0.8944

ELEMENT = "Line.L19"
18       1       119.1 +j     60.1      133.3       0.8928
18       2        42.1 +j     21.0       47.0       0.8944
18       3       120.4 +j     60.4      134.7       0.8940
   TERMINAL TOTAL   281.6 +j    141.5      315.1       0.8936
21       1      -119.0 +j    -59.9      133.3       0.8932
21       2       -42.1 +j    -21.0       47.0       0.8943
21       3      -120.3 +j    -60.2      134.6       0.8942
   TERMINAL TOTAL  -281.4 +j   -141.2      314.9       0.8938

ELEMENT = "Line.L20"
19       1        39.7 +j     19.8       44.3       0.8943
   TERMINAL TOTAL    39.7 +j     19.8       44.3       0.8943
20       1       -39.6 +j    -19.8       44.3       0.8944
   TERMINAL TOTAL   -39.6 +j    -19.8       44.3       0.8944

ELEMENT = "Line.L21"
21       2        42.1 +j     21.1       47.0       0.8942
   TERMINAL TOTAL    42.1 +j     21.1       47.0       0.8942
22       2       -42.0 +j    -21.0       47.0       0.8944
   TERMINAL TOTAL   -42.0 +j    -21.0       47.0       0.8944

ELEMENT = "Line.L22"
21       1       119.0 +j     59.9      133.3       0.8932
21       2         0.0 +j     -0.0        0.0      -0.0623
21       3       120.3 +j     60.2      134.6       0.8942
   TERMINAL TOTAL   239.4 +j    120.2      267.8       0.8937
23       1      -119.1 +j    -59.8      133.2       0.8937
23       2        -0.0 +j      0.0        0.0      -0.0625
23       3      -120.2 +j    -60.1      134.4       0.8943
   TERMINAL TOTAL  -239.3 +j   -119.9      267.6       0.8940

ELEMENT = "Line.L23"
23       3        40.0 +j     20.0       44.8       0.8942
   TERMINAL TOTAL    40.0 +j     20.0       44.8       0.8942
24       3       -40.0 +j    -20.0       44.7       0.8944
   TERMINAL TOTAL   -40.0 +j    -20.0       44.7       0.8944

ELEMENT = "Line.L24"
23       1       119.1 +j     59.8      133.2       0.8937
23       2         0.0 +j     -0.0        0.0      -0.0625
23       3        80.2 +j     40.1       89.6       0.8943
   TERMINAL TOTAL   199.2 +j     99.9      222.8       0.8939
25       1      -119.0 +j    -59.6      133.1       0.8941
25       2        -0.0 +j      0.0        0.0      -0.0627
25       3       -80.1 +j    -40.1       89.5       0.8943
   TERMINAL TOTAL  -199.1 +j    -99.7      222.7       0.8942

ELEMENT = "Line.L25"
25R      1        40.1 +j     20.1       44.9       0.8939
25R      3        40.0 +j     20.0       44.8       0.8943
   TERMINAL TOTAL    80.2 +j     40.2       89.7       0.8941
26       1       -40.1 +j    -20.1       44.9       0.8941
26       3       -40.0 +j    -20.0       44.8       0.8943
   TERMINAL TOTAL   -80.1 +j    -40.1       89.6       0.8942

ELEMENT = "Line.L26"
25       1        78.9 +j     39.5       88.2       0.8942
25       2         0.0 +j     -0.0        0.0      -0.0627
25       3        40.0 +j     20.0       44.8       0.8943
   TERMINAL TOTAL   118.9 +j     59.5      133.0       0.8942
28       1       -78.9 +j    -39.5       88.2       0.8944
28       2        -0.0 +j      0.0        0.0      -0.0627
28       3       -40.0 +j    -20.0       44.8       0.8943
   TERMINAL TOTAL  -118.9 +j    -59.5      133.0       0.8944

ELEMENT = "Line.L27"
26       1        40.1 +j     20.1       44.9       0.8941
26       3        -0.0 +j     -0.0        0.0       0.1559
   TERMINAL TOTAL    40.1 +j     20.1       44.9       0.8941
27       1       -40.1 +j    -20.1       44.9       0.8942
27       3         0.0 +j     -0.0        0.0      -0.4817
   TERMINAL TOTAL   -40.1 +j    -20.1       44.9       0.8942

ELEMENT = "Line.L28"
26       3        40.0 +j     20.0       44.8       0.8943
   TERMINAL TOTAL    40.0 +j     20.0       44.8       0.8943
31       3       -40.0 +j    -20.0       44.7       0.8944
   TERMINAL TOTAL   -40.0 +j    -20.0       44.7       0.8944

ELEMENT = "Line.L29"
27       1        40.1 +j     20.1       44.9       0.8942
   TERMINAL TOTAL    40.1 +j     20.1       44.9       0.8942
33       1       -40.1 +j    -20.0       44.8       0.8944
   TERMINAL TOTAL   -40.1 +j    -20.0       44.8       0.8944

ELEMENT = "Line.L30"
28       1        39.3 +j     19.6       43.9       0.8943
28       2         0.0 +j     -0.0        0.0      -0.0627
28       3        40.0 +j     20.0       44.8       0.8943
   TERMINAL TOTAL    79.3 +j     39.7       88.7       0.8943
29       1       -39.3 +j    -19.6       43.9       0.8945
29       2        -0.0 +j      0.0        0.0      -0.0628
29       3       -40.0 +j    -20.0       44.7       0.8943
   TERMINAL TOTAL   -79.3 +j    -39.6       88.6       0.8944

ELEMENT = "Line.L31"
29       1         0.0 +j     -0.0        0.0      -0.0695
29       2         0.0 +j     -0.0        0.0      -0.0628
29       3        40.0 +j     20.0       44.7       0.8943
   TERMINAL TOTAL    40.0 +j     20.0       44.7       0.8944
30       1        -0.0 +j      0.0        0.0      -0.0694
30       2        -0.0 +j      0.0        0.0      -0.0630
30       3       -40.0 +j    -20.0       44.7       0.8944
   TERMINAL TOTAL   -40.0 +j    -20.0       44.7       0.8945

ELEMENT = "Line.L32"
30       1         0.0 +j     -0.0        0.0      -0.0694
30       2         0.0 +j     -0.0        0.0      -0.0630
30       3        -0.0 +j     -0.0        0.0       0.1319
   TERMINAL TOTAL     0.0 +j     -0.0        0.0      -0.0000
250      1        -0.0 +j     -0.0        0.0       0.7374
250      2         0.0 +j     -0.0        0.0      -0.8555
250      3         0.0 +j     -0.0        0.0      -0.0386
   TERMINAL TOTAL    -0.0 +j     -0.0        0.0       0.2141

ELEMENT = "Line.L33"
31       3        20.0 +j     10.0       22.4       0.8944
   TERMINAL TOTAL    20.0 +j     10.0       22.4       0.8944
32       3       -20.0 +j    -10.0       22.4       0.8944
   TERMINAL TOTAL   -20.0 +j    -10.0       22.4       0.8944

ELEMENT = "Line.L34"
34       3        60.1 +j     30.1       67.2       0.8943
   TERMINAL TOTAL    60.1 +j     30.1       67.2       0.8943
15       3       -60.0 +j    -30.0       67.1       0.8943
   TERMINAL TOTAL   -60.0 +j    -30.0       67.1       0.8943

ELEMENT = "Line.L35"
35       1        39.1 +j     19.6       43.8       0.8942
35       2        40.5 +j     20.3       45.3       0.8940
   TERMINAL TOTAL    79.6 +j     39.9       89.0       0.8941
36       1       -39.1 +j    -19.6       43.7       0.8943
36       2       -40.5 +j    -20.3       45.3       0.8943
   TERMINAL TOTAL   -79.6 +j    -39.8       89.0       0.8943

ELEMENT = "Line.L36"
35       1       217.7 +j    139.0      258.3       0.8428
35       2       220.4 +j    149.4      266.3       0.8278
35       3       200.5 +j    126.1      236.9       0.8465
   TERMINAL TOTAL   638.7 +j    414.5      761.4       0.8388
40       1      -217.5 +j   -138.7      257.9       0.8432
40       2      -220.3 +j   -149.0      266.0       0.8283
40       3      -200.4 +j   -125.8      236.6       0.8469
   TERMINAL TOTAL  -638.2 +j   -413.5      760.5       0.8392

ELEMENT = "Line.L37"
36       1        39.1 +j     19.6       43.7       0.8943
   TERMINAL TOTAL    39.1 +j     19.6       43.7       0.8943
37       1       -39.1 +j    -19.5       43.7       0.8944
   TERMINAL TOTAL   -39.1 +j    -19.5       43.7       0.8944

ELEMENT = "Line.L38"
36       2        40.5 +j     20.3       45.3       0.8943
   TERMINAL TOTAL    40.5 +j     20.3       45.3       0.8943
38       2       -40.5 +j    -20.2       45.2       0.8944
   TERMINAL TOTAL   -40.5 +j    -20.2       45.2       0.8944

ELEMENT = "Line.L39"
38       2        20.0 +j     10.0       22.4       0.8944
   TERMINAL TOTAL    20.0 +j     10.0       22.4       0.8944
39       2       -20.0 +j    -10.0       22.4       0.8944
   TERMINAL TOTAL   -20.0 +j    -10.0       22.4       0.8944

ELEMENT = "Line.L40"
40       3        20.0 +j     10.0       22.4       0.8944
   TERMINAL TOTAL    20.0 +j     10.0       22.4       0.8944
41       3       -20.0 +j    -10.0       22.4       0.8944
   TERMINAL TOTAL   -20.0 +j    -10.0       22.4       0.8944

ELEMENT = "Line.L41"
40       1       217.5 +j    138.7      257.9       0.8432
40       2       220.3 +j    149.0      266.0       0.8283
40       3       180.4 +j    115.8      214.4       0.8415
   TERMINAL TOTAL   618.2 +j    403.5      738.2       0.8374
42       1      -217.2 +j   -138.3      257.5       0.8435
42       2      -220.2 +j   -148.7      265.7       0.8288
42       3      -180.3 +j   -115.6      214.2       0.8418
   TERMINAL TOTAL  -617.7 +j   -402.6      737.3       0.8378

ELEMENT = "Line.L42"
42       2        41.7 +j     20.9       46.6       0.8942
   TERMINAL TOTAL    41.7 +j     20.9       46.6       0.8942
43       2       -41.6 +j    -20.8       46.5       0.8944
   TERMINAL TOTAL   -41.6 +j    -20.8       46.5       0.8944

ELEMENT = "Line.L43"
42       1       197.2 +j    128.3      235.3       0.8382
42       2       178.5 +j    127.8      219.5       0.8131
42       3       180.3 +j    115.6      214.2       0.8418
   TERMINAL TOTAL   556.0 +j    371.7      668.9       0.8313
44       1      -197.1 +j   -128.1      235.0       0.8385
44       2      -178.4 +j   -127.6      219.4       0.8134
44       3      -180.2 +j   -115.4      214.0       0.8421
   TERMINAL TOTAL  -555.7 +j   -371.1      668.3       0.8316

ELEMENT = "Line.L44"
44       1        39.7 +j     19.9       44.4       0.8943
   TERMINAL TOTAL    39.7 +j     19.9       44.4       0.8943
45       1       -39.7 +j    -19.9       44.4       0.8944
   TERMINAL TOTAL   -39.7 +j    -19.9       44.4       0.8944

ELEMENT = "Line.L45"
44       1       157.3 +j    108.2      191.0       0.8240
44       2       178.4 +j    127.6      219.4       0.8134
44       3       180.2 +j    115.4      214.0       0.8421
   TERMINAL TOTAL   516.0 +j    351.3      624.2       0.8267
47       1      -157.2 +j   -108.0      190.8       0.8242
47       2      -178.3 +j   -127.4      219.2       0.8137
47       3      -180.1 +j   -115.2      213.8       0.8426
   TERMINAL TOTAL  -515.7 +j   -350.6      623.6       0.8270

ELEMENT = "Line.L46"
45       1        20.0 +j     10.0       22.4       0.8944
   TERMINAL TOTAL    20.0 +j     10.0       22.4       0.8944
46       1       -20.0 +j    -10.0       22.4       0.8944
   TERMINAL TOTAL   -20.0 +j    -10.0       22.4       0.8944

ELEMENT = "Line.L47"
47       1        67.8 +j     48.4       83.3       0.8137
47       2        72.6 +j     51.9       89.3       0.8137
47       3        70.1 +j     50.1       86.1       0.8136
   TERMINAL TOTAL   210.5 +j    150.4      258.7       0.8137
48       1       -67.7 +j    -48.4       83.3       0.8137
48       2       -72.6 +j    -51.9       89.3       0.8137
48       3       -70.1 +j    -50.1       86.1       0.8137
   TERMINAL TOTAL  -210.5 +j   -150.3      258.6       0.8137

ELEMENT = "Line.L48"
47       1        55.0 +j     35.0       65.2       0.8436
47       2        70.0 +j     50.0       86.1       0.8137
47       3        75.0 +j     40.1       85.0       0.8822
   TERMINAL TOTAL   200.1 +j    125.1      236.0       0.8479
49       1       -55.0 +j    -35.0       65.2       0.8437
49       2       -70.0 +j    -50.0       86.0       0.8138
49       3       -75.0 +j    -40.0       85.0       0.8823
   TERMINAL TOTAL  -200.0 +j   -125.0      235.9       0.8480

ELEMENT = "Line.L49"
49       1        20.0 +j     10.0       22.4       0.8944
49       2        -0.0 +j     -0.0        0.0       0.3727
49       3        40.0 +j     20.0       44.7       0.8944
   TERMINAL TOTAL    60.0 +j     30.0       67.1       0.8944
50       1       -20.0 +j    -10.0       22.4       0.8944
50       2         0.0 +j      0.0        0.0       0.3725
50       3       -40.0 +j    -20.0       44.7       0.8945
   TERMINAL TOTAL   -60.0 +j    -30.0       67.1       0.8945

ELEMENT = "Line.L50"
50       1        20.0 +j     10.0       22.4       0.8944
50       2        -0.0 +j     -0.0        0.0       0.3725
50       3         0.0 +j     -0.0        0.0      -0.1461
   TERMINAL TOTAL    20.0 +j     10.0       22.4       0.8946
51       1       -20.0 +j    -10.0       22.4       0.8945
51       2         0.0 +j      0.0        0.0       0.3725
51       3        -0.0 +j      0.0        0.0      -0.1461
   TERMINAL TOTAL   -20.0 +j    -10.0       22.4       0.8946

ELEMENT = "Line.L51"
51       1         0.0 +j     -0.0        0.0      -0.3057
51       2        -0.0 +j     -0.0        0.0       0.3725
51       3         0.0 +j     -0.0        0.0      -0.1461
   TERMINAL TOTAL     0.0 +j     -0.0        0.0      -0.0000
151      1        -0.0 +j      0.0        0.0      -1.0000
151      2        -0.0 +j     -0.0        0.0       1.0000
151      3        -0.0 +j      0.0        0.0      -1.0000
   TERMINAL TOTAL    -0.0 +j      0.0        0.0      -1.0000

ELEMENT = "Line.L52"
52       1       738.5 +j    149.3      753.5       0.9802
52       2       600.3 +j     85.2      606.3       0.9901
52       3       639.7 +j     76.3      644.2       0.9930
   TERMINAL TOTAL  1978.5 +j    310.9     2002.8       0.9879
53       1      -737.0 +j   -146.6      751.4       0.9808
53       2      -600.0 +j    -83.9      605.9       0.9904
53       3      -638.8 +j    -74.8      643.2       0.9932
   TERMINAL TOTAL -1975.8 +j   -305.3     1999.3       0.9883

ELEMENT = "Line.L53"
53       1       697.0 +j    126.6      708.4       0.9839
53       2       600.0 +j     83.9      605.9       0.9904
53       3       638.8 +j     74.8      643.2       0.9932
   TERMINAL TOTAL  1935.8 +j    285.3     1956.7       0.9893
54       1      -696.1 +j   -125.1      707.3       0.9842
54       2      -599.8 +j    -83.1      605.5       0.9905
54       3      -638.3 +j    -73.7      642.6       0.9934
   TERMINAL TOTAL -1934.2 +j   -282.0     1954.7       0.9895

ELEMENT = "Line.L54"
54       1        19.7 +j      9.8       22.0       0.8945
54       2        20.0 +j     10.0       22.4       0.8944
54       3         0.0 +j     -0.0        0.0      -0.0688
   TERMINAL TOTAL    39.7 +j     19.8       44.3       0.8945
55       1       -19.6 +j     -9.8       22.0       0.8945
55       2       -20.0 +j    -10.0       22.4       0.8944
55       3        -0.0 +j      0.0        0.0      -0.0689
   TERMINAL TOTAL   -39.7 +j    -19.8       44.3       0.8945

ELEMENT = "Line.L55"
54       1       676.5 +j    115.3      686.2       0.9858
54       2       579.8 +j     73.1      584.4       0.9921
54       3       638.3 +j     73.7      642.6       0.9934
   TERMINAL TOTAL  1894.6 +j    262.2     1912.6       0.9906
57       1      -674.9 +j   -111.4      684.0       0.9867
57       2      -578.5 +j    -70.8      582.8       0.9926
57       3      -636.9 +j    -71.2      640.9       0.9938
   TERMINAL TOTAL -1890.3 +j   -253.4     1907.2       0.9911

ELEMENT = "Line.L56"
55       1        -0.0 +j     -0.0        0.0       0.1498
55       2        20.0 +j     10.0       22.4       0.8944
55       3         0.0 +j     -0.0        0.0      -0.0689
   TERMINAL TOTAL    20.0 +j     10.0       22.4       0.8945
56       1        -0.0 +j     -0.0        0.0       0.8077
56       2       -20.0 +j    -10.0       22.4       0.8944
56       3         0.0 +j     -0.0        0.0      -0.4762
   TERMINAL TOTAL   -20.0 +j    -10.0       22.4       0.8944

ELEMENT = "Line.L57"
57       2        40.5 +j     20.3       45.3       0.8943
   TERMINAL TOTAL    40.5 +j     20.3       45.3       0.8943
58       2       -40.5 +j    -20.2       45.3       0.8944
   TERMINAL TOTAL   -40.5 +j    -20.2       45.3       0.8944

ELEMENT = "Line.L58"
57       1       674.9 +j    111.4      684.0       0.9867
57       2       538.0 +j     50.6      540.3       0.9956
57       3       636.9 +j     71.2      640.9       0.9938
   TERMINAL TOTAL  1849.8 +j    233.1     1864.4       0.9922
60       1      -671.6 +j   -102.7      679.5       0.9885
60       2      -535.7 +j    -46.7      537.7       0.9962
60       3      -633.6 +j    -65.7      637.0       0.9947
   TERMINAL TOTAL -1841.0 +j   -215.1     1853.5       0.9932

ELEMENT = "Line.L59"
58       2        20.0 +j     10.0       22.4       0.8944
   TERMINAL TOTAL    20.0 +j     10.0       22.4       0.8944
59       2       -20.0 +j    -10.0       22.4       0.8944
   TERMINAL TOTAL   -20.0 +j    -10.0       22.4       0.8944

ELEMENT = "Line.L60"
60       1        -0.0 +j     -0.0        0.0       0.0881
60       2         0.0 +j     -0.0        0.0      -0.1393
60       3        -0.0 +j     -0.0        0.0       0.0574
   TERMINAL TOTAL     0.0 +j     -0.0        0.0      -0.0000
61       1        -0.0 +j     -0.0        0.0       0.0076
61       2        -0.0 +j     -0.0        0.0       0.0001
61       3         0.0 +j     -0.0        0.0      -0.0075
   TERMINAL TOTAL    -0.0 +j     -0.0        0.0       0.0000

ELEMENT = "Line.L61"
60       1        84.4 +j     65.4      106.8       0.7905
60       2       112.2 +j     60.9      127.6       0.8787
60       3       174.6 +j     83.4      193.5       0.9022
   TERMINAL TOTAL   371.1 +j    209.8      426.3       0.8706
62       1       -84.3 +j    -65.4      106.7       0.7904
62       2      -112.0 +j    -60.9      127.5       0.8784
62       3      -174.2 +j    -83.3      193.1       0.9023
   TERMINAL TOTAL  -370.6 +j   -209.6      425.7       0.8705

ELEMENT = "Line.L62"
62       1        84.3 +j     65.4      106.7       0.7904
62       2       112.0 +j     60.9      127.5       0.8784
62       3       134.5 +j     63.4      148.6       0.9046
   TERMINAL TOTAL   330.8 +j    189.7      381.3       0.8675
63       1       -84.3 +j    -65.4      106.6       0.7902
63       2      -111.9 +j    -60.9      127.4       0.8783
63       3      -134.3 +j    -63.3      148.5       0.9046
   TERMINAL TOTAL  -330.5 +j   -189.6      381.0       0.8674

ELEMENT = "Line.L63"
63       1        44.3 +j     45.4       63.4       0.6984
63       2       111.9 +j     60.9      127.4       0.8783
63       3       134.3 +j     63.3      148.5       0.9046
   TERMINAL TOTAL   290.5 +j    169.6      336.4       0.8636
64       1       -44.2 +j    -45.4       63.4       0.6980
64       2      -111.7 +j    -60.9      127.2       0.8779
64       3      -134.1 +j    -63.1      148.2       0.9048
   TERMINAL TOTAL  -290.0 +j   -169.4      335.8       0.8635

ELEMENT = "Line.L64"
64       1        44.2 +j     45.4       63.4       0.6980
64       2        35.5 +j     25.3       43.6       0.8135
64       3       134.1 +j     63.1      148.2       0.9048
   TERMINAL TOTAL   213.8 +j    133.8      252.2       0.8476
65       1       -44.2 +j    -45.4       63.3       0.6979
65       2       -35.4 +j    -25.4       43.6       0.8127
65       3      -133.7 +j    -62.9      147.7       0.9048
   TERMINAL TOTAL  -213.3 +j   -133.7      251.7       0.8473

ELEMENT = "Line.L65"
65       1         0.0 +j     -0.0        0.0      -0.0002
65       2        -0.0 +j     -0.0        0.0       0.0002
65       3        75.1 +j     35.0       82.9       0.9063
   TERMINAL TOTAL    75.1 +j     35.0       82.9       0.9065
66       1         0.0 +j     -0.0        0.0      -0.8653
66       2         0.0 +j      0.0        0.0       0.5281
66       3       -75.0 +j    -35.0       82.8       0.9062
   TERMINAL TOTAL   -75.0 +j    -35.0       82.8       0.9062

ELEMENT = "Line.L66"
67       1       120.4 +j     60.4      134.7       0.8939
   TERMINAL TOTAL   120.4 +j     60.4      134.7       0.8939
68       1      -120.2 +j    -60.2      134.5       0.8941
   TERMINAL TOTAL  -120.2 +j    -60.2      134.5       0.8941

ELEMENT = "Line.L67"
67       1       263.0 +j   -128.2      292.6      -0.8990
67       2       302.9 +j    -75.9      312.3      -0.9700
67       3       315.4 +j    -90.3      328.1      -0.9613
   TERMINAL TOTAL   881.4 +j   -294.4      929.2      -0.9485
72       1      -262.9 +j    128.6      292.7      -0.8982
72       2      -302.5 +j     76.4      312.0      -0.9696
72       3      -315.2 +j     91.0      328.1      -0.9608
   TERMINAL TOTAL  -880.6 +j    296.0      929.0      -0.9479

ELEMENT = "Line.L68"
67       1       182.8 +j     92.5      204.9       0.8923
67       2       120.2 +j     60.3      134.4       0.8938
67       3       142.6 +j     71.5      159.5       0.8938
   TERMINAL TOTAL   445.6 +j    224.3      498.8       0.8932
97       1      -182.7 +j    -92.2      204.7       0.8927
97       2      -120.1 +j    -60.2      134.4       0.8940
97       3      -142.5 +j    -71.4      159.4       0.8939
   TERMINAL TOTAL  -445.4 +j   -223.9      498.5       0.8935

ELEMENT = "Line.L69"
68       1       100.2 +j     50.2      112.1       0.8940
   TERMINAL TOTAL   100.2 +j     50.2      112.1       0.8940
69       1      -100.1 +j    -50.1      111.9       0.8943
   TERMINAL TOTAL  -100.1 +j    -50.1      111.9       0.8943

ELEMENT = "Line.L70"
69       1        60.1 +j     30.1       67.2       0.8942
   TERMINAL TOTAL    60.1 +j     30.1       67.2       0.8942
70       1       -60.0 +j    -30.0       67.1       0.8944
   TERMINAL TOTAL   -60.0 +j    -30.0       67.1       0.8944

ELEMENT = "Line.L71"
70       1        40.0 +j     20.0       44.8       0.8943
   TERMINAL TOTAL    40.0 +j     20.0       44.8       0.8943
71       1       -40.0 +j    -20.0       44.7       0.8944
   TERMINAL TOTAL   -40.0 +j    -20.0       44.7       0.8944

ELEMENT = "Line.L72"
72       3       122.3 +j     61.3      136.8       0.8939
   TERMINAL TOTAL   122.3 +j     61.3      136.8       0.8939
73       3      -122.1 +j    -61.1      136.5       0.8942
   TERMINAL TOTAL  -122.1 +j    -61.1      136.5       0.8942

ELEMENT = "Line.L73"
72       1       262.9 +j   -128.6      292.7      -0.8982
72       2       302.5 +j    -76.4      312.0      -0.9696
72       3       192.9 +j   -152.3      245.8      -0.7848
   TERMINAL TOTAL   758.3 +j   -357.3      838.3      -0.9046
76       1      -262.7 +j    128.9      292.7      -0.8977
76       2      -302.2 +j     76.8      311.8      -0.9692
76       3      -192.9 +j    152.6      245.9      -0.7843
   TERMINAL TOTAL  -757.8 +j    358.3      838.3      -0.9040

ELEMENT = "Line.L74"
73       3        82.1 +j     41.1       91.8       0.8941
   TERMINAL TOTAL    82.1 +j     41.1       91.8       0.8941
74       3       -82.0 +j    -41.0       91.7       0.8944
   TERMINAL TOTAL   -82.0 +j    -41.0       91.7       0.8944

ELEMENT = "Line.L75"
...